1,3
 OpenBabel03112112473D

  7  6  0  0  0  0  0  0  0  0999 V2000
    1.0757    0.1884    0.0163 O   0  5  0  0  0  0  0  0  0  0  0  0
    2.3325    0.0708    0.0365 C   0  0  0  0  0  0  0  0  0  0  0  0
    3.0477   -0.9552    0.2127 O   0  0  0  0  0  0  0  0  0  0  0  0
    3.1079    1.3580   -0.1845 C   0  0  0  0  0  0  0  0  0  0  0  0
    2.4345    2.2081   -0.3305 H   0  0  0  0  0  0  0  0  0  0  0  0
    3.7413    1.2625   -1.0715 H   0  0  0  0  0  0  0  0  0  0  0  0
    3.7413    1.5638    0.6835 H   0  0  0  0  0  0  0  0  0  0  0  0
  1  2  1  0  0  0  0
  2  3  2  0  0  0  0
  2  4  1  0  0  0  0
  4  5  1  0  0  0  0
  4  6  1  0  0  0  0
  4  7  1  0  0  0  0
M  CHG  1   1  -1
M  END
