2,5
 OpenBabel03112112473D

 16 15  0  0  0  0  0  0  0  0999 V2000
    0.9179    0.0807    0.0379 C   0  0  0  0  0  0  0  0  0  0  0  0
    2.3391    0.0627    0.0277 O   0  0  0  0  0  0  0  0  0  0  0  0
    2.8395   -1.1603   -0.5122 C   0  0  0  0  0  0  0  0  0  0  0  0
    4.3629   -1.1330   -0.5005 C   0  0  0  0  0  0  0  0  0  0  0  0
    4.8632   -2.3567   -1.0389 O   0  0  0  0  0  0  0  0  0  0  0  0
    6.2844   -2.3755   -1.0473 C   0  0  0  0  0  0  0  0  0  0  0  0
    0.5884    1.0344    0.4590 H   0  0  0  0  0  0  0  0  0  0  0  0
    0.5290   -0.7296    0.6619 H   0  0  0  0  0  0  0  0  0  0  0  0
    0.5264   -0.0056   -0.9802 H   0  0  0  0  0  0  0  0  0  0  0  0
    2.4783   -1.2934   -1.5392 H   0  0  0  0  0  0  0  0  0  0  0  0
    2.4787   -2.0089    0.0813 H   0  0  0  0  0  0  0  0  0  0  0  0
    4.7240   -0.9985    0.5263 H   0  0  0  0  0  0  0  0  0  0  0  0
    4.7237   -0.2852   -1.0953 H   0  0  0  0  0  0  0  0  0  0  0  0
    6.6136   -3.3295   -1.4669 H   0  0  0  0  0  0  0  0  0  0  0  0
    6.6747   -2.2885   -0.0287 H   0  0  0  0  0  0  0  0  0  0  0  0
    6.6745   -1.5659   -1.6715 H   0  0  0  0  0  0  0  0  0  0  0  0
  1  2  1  0  0  0  0
  1  7  1  0  0  0  0
  1  8  1  0  0  0  0
  1  9  1  0  0  0  0
  2  3  1  0  0  0  0
  3  4  1  0  0  0  0
  3 10  1  0  0  0  0
  3 11  1  0  0  0  0
  4  5  1  0  0  0  0
  4 12  1  0  0  0  0
  4 13  1  0  0  0  0
  5  6  1  0  0  0  0
  6 14  1  0  0  0  0
  6 15  1  0  0  0  0
  6 16  1  0  0  0  0
M  END
