1,4
 OpenBabel03112112473D

 12 11  0  0  0  0  0  0  0  0999 V2000
    0.9047   -0.0531    0.0348 N   0  0  0  0  0  0  0  0  0  0  0  0
    2.3673   -0.0451    0.0454 C   0  0  0  0  0  0  0  0  0  0  0  0
    2.9251   -0.9059    1.1902 C   0  0  0  0  0  0  0  0  0  0  0  0
    4.3876   -0.8992    1.1992 N   0  0  0  0  0  0  0  0  0  0  0  0
    0.5774    0.5608   -0.7103 H   0  0  0  0  0  0  0  0  0  0  0  0
    0.5620    0.3547    0.9045 H   0  0  0  0  0  0  0  0  0  0  0  0
    2.7203    0.9879    0.1453 H   0  0  0  0  0  0  0  0  0  0  0  0
    2.7277   -0.4260   -0.9168 H   0  0  0  0  0  0  0  0  0  0  0  0
    2.5710   -1.9386    1.0911 H   0  0  0  0  0  0  0  0  0  0  0  0
    2.5658   -0.5241    2.1525 H   0  0  0  0  0  0  0  0  0  0  0  0
    4.7290   -1.3078    0.3295 H   0  0  0  0  0  0  0  0  0  0  0  0
    4.7151   -1.5137    1.9442 H   0  0  0  0  0  0  0  0  0  0  0  0
  1  2  1  0  0  0  0
  1  5  1  0  0  0  0
  1  6  1  0  0  0  0
  2  3  1  0  0  0  0
  2  7  1  0  0  0  0
  2  8  1  0  0  0  0
  3  4  1  0  0  0  0
  3  9  1  0  0  0  0
  3 10  1  0  0  0  0
  4 11  1  0  0  0  0
  4 12  1  0  0  0  0
M  END
