1,5
 OpenBabel03112112473D

  9  8  0  0  0  0  0  0  0  0999 V2000
    1.0486    0.0664    0.1017 N   0  0  0  0  0  0  0  0  0  0  0  0
    2.5433    0.1087    0.0308 C   0  0  0  0  0  0  0  0  0  0  0  0
    3.0163    0.6858   -1.3482 C   0  0  0  0  0  0  0  0  0  0  0  0
    2.1283    0.6717   -2.2568 O   0  0  0  0  0  0  0  0  0  0  0  0
    4.2105    1.0842   -1.3853 O   0  5  0  0  0  0  0  0  0  0  0  0
    0.7751   -0.9094    0.0207 H   0  0  0  0  0  0  0  0  0  0  0  0
    0.7749    0.4461   -0.8252 H   0  0  0  0  0  0  0  0  0  0  0  0
    2.9362   -0.9094    0.1287 H   0  0  0  0  0  0  0  0  0  0  0  0
    2.9249    0.7219    0.8511 H   0  0  0  0  0  0  0  0  0  0  0  0
  1  2  1  0  0  0  0
  1  6  1  0  0  0  0
  1  7  1  0  0  0  0
  2  3  1  0  0  0  0
  2  8  1  0  0  0  0
  2  9  1  0  0  0  0
  3  4  2  0  0  0  0
  3  5  1  0  0  0  0
M  CHG  1   5  -1
M  END
