1
 OpenBabel03112112443D

  9  9  0  0  0  0  0  0  0  0999 V2000
   -1.1717    0.0410    0.0048 N   0  0  0  0  0  0  0  0  0  0  0  0
   -0.3944   -1.0882    0.0023 C   0  0  0  0  0  0  0  0  0  0  0  0
    0.9405   -0.7600    0.0020 C   0  0  0  0  0  0  0  0  0  0  0  0
    0.9690    0.6071    0.0020 N   0  0  0  0  0  0  0  0  0  0  0  0
   -0.3250    1.0447    0.0053 C   0  0  0  0  0  0  0  0  0  0  0  0
   -0.8377   -2.0758    0.0013 H   0  0  0  0  0  0  0  0  0  0  0  0
    1.8395   -1.3591    0.0011 H   0  0  0  0  0  0  0  0  0  0  0  0
    1.7924    1.1933    0.0003 H   0  0  0  0  0  0  0  0  0  0  0  0
   -0.5852    2.0946    0.0079 H   0  0  0  0  0  0  0  0  0  0  0  0
  1  2  1  0  0  0  0
  1  5  2  0  0  0  0
  2  3  2  0  0  0  0
  2  6  1  0  0  0  0
  3  4  1  0  0  0  0
  3  7  1  0  0  0  0
  4  5  1  0  0  0  0
  4  8  1  0  0  0  0
  5  9  1  0  0  0  0
M  END
