1
 OpenBabel03112112443D

  4  3  0  0  0  0  0  0  0  0999 V2000
    1.1316   -0.1397    0.1864 C   0  5  0  0  0  0  0  0  0  0  0  0
    2.1522    0.1674   -0.0032 H   0  0  0  0  0  0  0  0  0  0  0  0
    0.6212    0.1994    1.0789 H   0  0  0  0  0  0  0  0  0  0  0  0
    0.6212   -0.7856   -0.5166 H   0  0  0  0  0  0  0  0  0  0  0  0
  1  2  1  0  0  0  0
  1  3  1  0  0  0  0
  1  4  1  0  0  0  0
M  CHG  1   1  -1
M  END
