2
 OpenBabel03112112443D

  9  8  0  0  0  0  0  0  0  0999 V2000
    0.9150   -0.0345    0.0628 C   0  0  0  0  0  0  0  0  0  0  0  0
    2.3360   -0.0129    0.0757 O   0  0  0  0  0  0  0  0  0  0  0  0
    2.8334    1.1296    0.7594 C   0  0  0  0  0  0  0  0  0  0  0  0
    0.5887   -0.9299   -0.4730 H   0  0  0  0  0  0  0  0  0  0  0  0
    0.5232    0.8458   -0.4561 H   0  0  0  0  0  0  0  0  0  0  0  0
    0.5232   -0.0757    1.0838 H   0  0  0  0  0  0  0  0  0  0  0  0
    3.9260    1.0951    0.7387 H   0  0  0  0  0  0  0  0  0  0  0  0
    2.5031    1.1256    1.8026 H   0  0  0  0  0  0  0  0  0  0  0  0
    2.5031    2.0471    0.2627 H   0  0  0  0  0  0  0  0  0  0  0  0
  1  2  1  0  0  0  0
  1  4  1  0  0  0  0
  1  5  1  0  0  0  0
  1  6  1  0  0  0  0
  2  3  1  0  0  0  0
  3  7  1  0  0  0  0
  3  8  1  0  0  0  0
  3  9  1  0  0  0  0
M  END
