1
 OpenBabel03112112443D

  6  5  0  0  0  0  0  0  0  0999 V2000
    1.0883    0.0129   -0.0452 N   0  0  0  0  0  0  0  0  0  0  0  0
    2.3493    0.0129   -0.0452 C   0  0  0  0  0  0  0  0  0  0  0  0
    3.8693    0.0129   -0.0452 C   0  0  0  0  0  0  0  0  0  0  0  0
    4.2420    0.1819    0.9688 H   0  0  0  0  0  0  0  0  0  0  0  0
    4.2420    0.8066   -0.6985 H   0  0  0  0  0  0  0  0  0  0  0  0
    4.2420   -0.9497   -0.4058 H   0  0  0  0  0  0  0  0  0  0  0  0
  1  2  3  0  0  0  0
  2  3  1  0  0  0  0
  3  4  1  0  0  0  0
  3  5  1  0  0  0  0
  3  6  1  0  0  0  0
M  END
