1
 OpenBabel03112112443D

  6  5  0  0  0  0  0  0  0  0999 V2000
    1.0872    0.0872   -0.0479 C   0  0  0  0  0  3  0  0  0  0  0  0
    2.2599    0.0872   -0.0479 N   0  0  0  0  0  4  0  0  0  0  0  0
    3.6921    0.0872   -0.0479 C   0  0  0  0  0  0  0  0  0  0  0  0
    4.0766    0.8367   -0.7456 H   0  0  0  0  0  0  0  0  0  0  0  0
    4.0766   -0.8917   -0.3481 H   0  0  0  0  0  0  0  0  0  0  0  0
    4.0766    0.3167    0.9500 H   0  0  0  0  0  0  0  0  0  0  0  0
  1  2  3  0  0  0  0
  2  3  1  0  0  0  0
  3  4  1  0  0  0  0
  3  5  1  0  0  0  0
  3  6  1  0  0  0  0
M  END
