2
 OpenBabel03112112443D

  5  4  0  0  0  0  0  0  0  0999 V2000
    1.1194    0.0355   -0.0927 C   0  0  0  0  0  0  0  0  0  0  0  0
    2.4440    0.0355   -0.0927 O   0  5  0  0  0  0  0  0  0  0  0  0
    0.6139   -0.4392   -0.9508 H   0  0  0  0  0  0  0  0  0  0  0  0
    0.6139    1.0159   -0.0748 H   0  0  0  0  0  0  0  0  0  0  0  0
    0.6139   -0.4703    0.7474 H   0  0  0  0  0  0  0  0  0  0  0  0
  1  2  1  0  0  0  0
  1  3  1  0  0  0  0
  1  4  1  0  0  0  0
  1  5  1  0  0  0  0
M  CHG  1   2  -1
M  END
