1
 OpenBabel03112112443D

 15 15  0  0  0  0  0  0  0  0999 V2000
   -1.1132    0.0164   -0.1270 C   0  0  0  0  0  2  0  0  0  0  0  0
   -0.3410   -1.2090   -0.2241 N   0  0  0  0  0  0  0  0  0  0  0  0
   -0.7715   -2.3923    0.4816 C   0  0  0  0  0  0  0  0  0  0  0  0
    0.9512   -0.6891   -0.1436 C   0  0  0  0  0  0  0  0  0  0  0  0
    0.9695    0.6606   -0.1133 C   0  0  0  0  0  0  0  0  0  0  0  0
   -0.3038    1.2177   -0.1847 N   0  0  0  0  0  0  0  0  0  0  0  0
   -0.7309    2.4097    0.5053 C   0  0  0  0  0  0  0  0  0  0  0  0
   -1.8580   -2.5175    0.4170 H   0  0  0  0  0  0  0  0  0  0  0  0
   -0.4891   -2.3525    1.5397 H   0  0  0  0  0  0  0  0  0  0  0  0
   -0.3091   -3.2797    0.0362 H   0  0  0  0  0  0  0  0  0  0  0  0
    1.7905   -1.3606   -0.0474 H   0  0  0  0  0  0  0  0  0  0  0  0
    1.8333    1.3021    0.0023 H   0  0  0  0  0  0  0  0  0  0  0  0
    0.0738    3.1527    0.5379 H   0  0  0  0  0  0  0  0  0  0  0  0
   -1.0399    2.1938    1.5339 H   0  0  0  0  0  0  0  0  0  0  0  0
   -1.5760    2.8635   -0.0225 H   0  0  0  0  0  0  0  0  0  0  0  0
  1  2  1  0  0  0  0
  1  6  1  0  0  0  0
  2  3  1  0  0  0  0
  2  4  1  0  0  0  0
  3  8  1  0  0  0  0
  3  9  1  0  0  0  0
  3 10  1  0  0  0  0
  4  5  2  0  0  0  0
  4 11  1  0  0  0  0
  5  6  1  0  0  0  0
  5 12  1  0  0  0  0
  6  7  1  0  0  0  0
  7 13  1  0  0  0  0
  7 14  1  0  0  0  0
  7 15  1  0  0  0  0
M  END
