1,6
 OpenBabel03112112473D

  6  5  0  0  0  0  0  0  0  0999 V2000
    1.1446   -0.1889   -0.1295 O   0  5  0  0  0  0  0  0  0  0  0  0
    2.4201   -0.0881   -0.0551 C   0  0  0  0  0  0  0  0  0  0  0  0
    3.1163    0.7772    0.5848 O   0  0  0  0  0  0  0  0  0  0  0  0
    3.2155   -1.1374   -0.8314 C   0  0  0  0  0  0  0  0  0  0  0  0
    3.5040   -2.2069   -0.1865 O   0  0  0  0  0  0  0  0  0  0  0  0
    3.5063   -0.8325   -2.0418 O   0  5  0  0  0  0  0  0  0  0  0  0
  1  2  1  0  0  0  0
  2  3  2  0  0  0  0
  2  4  1  0  0  0  0
  4  5  2  0  0  0  0
  4  6  1  0  0  0  0
M  CHG  2   1  -1   6  -1
M  END
