2,11
 OpenBabel03112112473D

 22 24  0  0  0  0  0  0  0  0999 V2000
   -0.7055    0.3484    0.0020 C   0  0  0  0  0  0  0  0  0  0  0  0
   -1.4103    1.5098    0.0063 N   0  0  0  0  0  0  0  0  0  0  0  0
   -2.7589    1.4746    0.0004 C   0  0  0  0  0  0  0  0  0  0  0  0
   -3.4922    0.3088   -0.0135 C   0  0  0  0  0  0  0  0  0  0  0  0
   -2.7957   -0.8905   -0.0144 C   0  0  0  0  0  0  0  0  0  0  0  0
   -1.3935   -0.8903   -0.0027 C   0  0  0  0  0  0  0  0  0  0  0  0
   -0.6928   -2.1005    0.0017 C   0  0  0  0  0  0  0  0  0  0  0  0
    0.6940   -2.0994    0.0073 C   0  0  0  0  0  0  0  0  0  0  0  0
    1.3922   -0.8883    0.0013 C   0  0  0  0  0  0  0  0  0  0  0  0
    0.7026    0.3493   -0.0015 C   0  0  0  0  0  0  0  0  0  0  0  0
    1.4054    1.5118   -0.0114 N   0  0  0  0  0  0  0  0  0  0  0  0
    2.7541    1.4786   -0.0236 C   0  0  0  0  0  0  0  0  0  0  0  0
    3.4893    0.3140   -0.0212 C   0  0  0  0  0  0  0  0  0  0  0  0
    2.7946   -0.8864   -0.0060 C   0  0  0  0  0  0  0  0  0  0  0  0
   -3.2437    2.4465    0.0066 H   0  0  0  0  0  0  0  0  0  0  0  0
   -4.5756    0.3332   -0.0231 H   0  0  0  0  0  0  0  0  0  0  0  0
   -3.3528   -1.8242   -0.0259 H   0  0  0  0  0  0  0  0  0  0  0  0
   -1.2228   -3.0508    0.0011 H   0  0  0  0  0  0  0  0  0  0  0  0
    1.2245   -3.0489    0.0122 H   0  0  0  0  0  0  0  0  0  0  0  0
    3.2373    2.4512   -0.0371 H   0  0  0  0  0  0  0  0  0  0  0  0
    4.5725    0.3397   -0.0326 H   0  0  0  0  0  0  0  0  0  0  0  0
    3.3530   -1.8195   -0.0036 H   0  0  0  0  0  0  0  0  0  0  0  0
  1  2  2  0  0  0  0
  1  6  1  0  0  0  0
  1 10  1  0  0  0  0
  2  3  1  0  0  0  0
  3  4  2  0  0  0  0
  3 15  1  0  0  0  0
  4  5  1  0  0  0  0
  4 16  1  0  0  0  0
  5  6  2  0  0  0  0
  5 17  1  0  0  0  0
  6  7  1  0  0  0  0
  7  8  2  0  0  0  0
  7 18  1  0  0  0  0
  8  9  1  0  0  0  0
  8 19  1  0  0  0  0
  9 10  2  0  0  0  0
  9 14  1  0  0  0  0
 10 11  1  0  0  0  0
 11 12  2  0  0  0  0
 12 13  1  0  0  0  0
 12 20  1  0  0  0  0
 13 14  2  0  0  0  0
 13 21  1  0  0  0  0
 14 22  1  0  0  0  0
M  END
