2,6
 OpenBabel03112112473D

 28 29  0  0  0  0  0  0  0  0999 V2000
    1.4780    1.2247   -0.2180 C   0  0  0  0  0  0  0  0  0  0  0  0
    2.7350   -0.0554    0.1034 P   0  0  0  0  0  0  0  0  0  0  0  0
    3.2614   -0.6009   -1.5675 C   0  0  0  0  0  0  0  0  0  0  0  0
    3.0806   -1.9177   -2.0551 C   0  0  0  0  0  0  0  0  0  0  0  0
    2.3300   -2.9756   -1.3342 C   0  0  0  0  0  0  0  0  0  0  0  0
    2.1447   -3.1119   -0.0608 N   0  0  0  0  0  0  0  0  0  0  0  0
    1.3604   -4.3435    0.0519 C   0  0  0  0  0  0  0  0  0  0  0  0
    0.8898   -4.6365   -1.3513 C   0  0  0  0  0  0  0  0  0  0  0  0
    1.7621   -3.8828   -2.1753 O   0  0  0  0  0  0  0  0  0  0  0  0
    3.6146   -2.2785   -3.3131 C   0  0  0  0  0  0  0  0  0  0  0  0
    4.2842   -1.3577   -4.1111 C   0  0  0  0  0  0  0  0  0  0  0  0
    4.4115   -0.0480   -3.6714 C   0  0  0  0  0  0  0  0  0  0  0  0
    3.9112    0.3225   -2.4194 C   0  0  0  0  0  0  0  0  0  0  0  0
    4.1232    0.9756    0.6977 C   0  0  0  0  0  0  0  0  0  0  0  0
    0.5652    0.7801   -0.6259 H   0  0  0  0  0  0  0  0  0  0  0  0
    1.8240    1.9964   -0.9104 H   0  0  0  0  0  0  0  0  0  0  0  0
    1.2072    1.7207    0.7224 H   0  0  0  0  0  0  0  0  0  0  0  0
    0.5178   -4.2246    0.7403 H   0  0  0  0  0  0  0  0  0  0  0  0
    2.0034   -5.1442    0.4323 H   0  0  0  0  0  0  0  0  0  0  0  0
   -0.1354   -4.2946   -1.5254 H   0  0  0  0  0  0  0  0  0  0  0  0
    0.9562   -5.7002   -1.5957 H   0  0  0  0  0  0  0  0  0  0  0  0
    3.5145   -3.2996   -3.6795 H   0  0  0  0  0  0  0  0  0  0  0  0
    4.6856   -1.6566   -5.0755 H   0  0  0  0  0  0  0  0  0  0  0  0
    4.9156    0.6848   -4.2947 H   0  0  0  0  0  0  0  0  0  0  0  0
    4.0394    1.3612   -2.1212 H   0  0  0  0  0  0  0  0  0  0  0  0
    3.8946    1.3579    1.6975 H   0  0  0  0  0  0  0  0  0  0  0  0
    4.3233    1.8400    0.0598 H   0  0  0  0  0  0  0  0  0  0  0  0
    5.0409    0.3845    0.7732 H   0  0  0  0  0  0  0  0  0  0  0  0
  1  2  1  0  0  0  0
  1 15  1  0  0  0  0
  1 16  1  0  0  0  0
  1 17  1  0  0  0  0
  2  3  1  0  0  0  0
  2 14  1  0  0  0  0
  3  4  2  0  0  0  0
  3 13  1  0  0  0  0
  4  5  1  0  0  0  0
  4 10  1  0  0  0  0
  5  6  2  0  0  0  0
  5  9  1  0  0  0  0
  6  7  1  0  0  0  0
  7  8  1  0  0  0  0
  7 18  1  0  0  0  0
  7 19  1  0  0  0  0
  8  9  1  0  0  0  0
  8 20  1  0  0  0  0
  8 21  1  0  0  0  0
 10 11  2  0  0  0  0
 10 22  1  0  0  0  0
 11 12  1  0  0  0  0
 11 23  1  0  0  0  0
 12 13  2  0  0  0  0
 12 24  1  0  0  0  0
 13 25  1  0  0  0  0
 14 26  1  0  0  0  0
 14 27  1  0  0  0  0
 14 28  1  0  0  0  0
M  END
