2,5,10
 OpenBabel03112112493D

 35 34  0  0  0  0  0  0  0  0999 V2000
    0.8777    0.0008    0.0248 C   0  0  0  0  0  0  0  0  0  0  0  0
    2.3451   -0.0032    0.1120 N   0  0  0  0  0  0  0  0  0  0  0  0
    2.7894    1.3653    0.4837 C   0  0  0  0  0  0  0  0  0  0  0  0
    4.3259    1.5832    0.4907 C   0  0  0  0  0  0  0  0  0  0  0  0
    4.7479    2.9705    0.7962 N   0  0  0  0  0  0  0  0  0  0  0  0
    4.3093    3.3977    2.1266 C   0  0  0  0  0  0  0  0  0  0  0  0
    6.2106    3.0588    0.7118 C   0  0  0  0  0  0  0  0  0  0  0  0
    2.8170   -0.9997    1.1032 C   0  0  0  0  0  0  0  0  0  0  0  0
    2.4461   -2.4719    0.7848 C   0  0  0  0  0  0  0  0  0  0  0  0
    3.0166   -3.4560    1.7327 N   0  0  0  0  0  0  0  0  0  0  0  0
    2.5387   -3.2429    3.1005 C   0  0  0  0  0  0  0  0  0  0  0  0
    2.6697   -4.8115    1.2948 C   0  0  0  0  0  0  0  0  0  0  0  0
    0.5354    0.7502   -0.6980 H   0  0  0  0  0  0  0  0  0  0  0  0
    0.4090    0.2189    0.9918 H   0  0  0  0  0  0  0  0  0  0  0  0
    0.4927   -0.9556   -0.3391 H   0  0  0  0  0  0  0  0  0  0  0  0
    2.3720    1.6176    1.4650 H   0  0  0  0  0  0  0  0  0  0  0  0
    2.3685    2.0777   -0.2395 H   0  0  0  0  0  0  0  0  0  0  0  0
    4.6996    1.3154   -0.5058 H   0  0  0  0  0  0  0  0  0  0  0  0
    4.7996    0.9085    1.2087 H   0  0  0  0  0  0  0  0  0  0  0  0
    3.2205    3.5064    2.1654 H   0  0  0  0  0  0  0  0  0  0  0  0
    4.7150    4.3860    2.3705 H   0  0  0  0  0  0  0  0  0  0  0  0
    4.6212    2.6967    2.9095 H   0  0  0  0  0  0  0  0  0  0  0  0
    6.5584    2.7886   -0.2910 H   0  0  0  0  0  0  0  0  0  0  0  0
    6.7045    2.4017    1.4382 H   0  0  0  0  0  0  0  0  0  0  0  0
    6.5467    4.0854    0.8947 H   0  0  0  0  0  0  0  0  0  0  0  0
    2.4389   -0.7221    2.0939 H   0  0  0  0  0  0  0  0  0  0  0  0
    3.9108   -0.9719    1.1506 H   0  0  0  0  0  0  0  0  0  0  0  0
    2.8274   -2.6950   -0.2209 H   0  0  0  0  0  0  0  0  0  0  0  0
    1.3572   -2.5910    0.7544 H   0  0  0  0  0  0  0  0  0  0  0  0
    2.9363   -2.3113    3.5140 H   0  0  0  0  0  0  0  0  0  0  0  0
    2.8953   -4.0383    3.7647 H   0  0  0  0  0  0  0  0  0  0  0  0
    1.4447   -3.2144    3.1559 H   0  0  0  0  0  0  0  0  0  0  0  0
    3.0663   -5.0079    0.2934 H   0  0  0  0  0  0  0  0  0  0  0  0
    1.5847   -4.9723    1.2744 H   0  0  0  0  0  0  0  0  0  0  0  0
    3.1149   -5.5593    1.9604 H   0  0  0  0  0  0  0  0  0  0  0  0
  1  2  1  0  0  0  0
  1 13  1  0  0  0  0
  1 14  1  0  0  0  0
  1 15  1  0  0  0  0
  2  3  1  0  0  0  0
  2  8  1  0  0  0  0
  3  4  1  0  0  0  0
  3 16  1  0  0  0  0
  3 17  1  0  0  0  0
  4  5  1  0  0  0  0
  4 18  1  0  0  0  0
  4 19  1  0  0  0  0
  5  6  1  0  0  0  0
  5  7  1  0  0  0  0
  6 20  1  0  0  0  0
  6 21  1  0  0  0  0
  6 22  1  0  0  0  0
  7 23  1  0  0  0  0
  7 24  1  0  0  0  0
  7 25  1  0  0  0  0
  8  9  1  0  0  0  0
  8 26  1  0  0  0  0
  8 27  1  0  0  0  0
  9 10  1  0  0  0  0
  9 28  1  0  0  0  0
  9 29  1  0  0  0  0
 10 11  1  0  0  0  0
 10 12  1  0  0  0  0
 11 30  1  0  0  0  0
 11 31  1  0  0  0  0
 11 32  1  0  0  0  0
 12 33  1  0  0  0  0
 12 34  1  0  0  0  0
 12 35  1  0  0  0  0
M  END
