1
 OpenBabel03112112443D

 13 12  0  0  0  0  0  0  0  0999 V2000
    0.8472    0.1155    0.3117 P   0  0  0  0  0  0  0  0  0  0  0  0
    0.3654    0.9392   -1.2548 C   0  0  0  0  0  0  0  0  0  0  0  0
    0.3668   -1.6124   -0.0730 C   0  0  0  0  0  0  0  0  0  0  0  0
    2.6626    0.0052    0.0718 C   0  0  0  0  0  0  0  0  0  0  0  0
   -0.7240    0.9565   -1.3554 H   0  0  0  0  0  0  0  0  0  0  0  0
    0.7798    0.4283   -2.1286 H   0  0  0  0  0  0  0  0  0  0  0  0
    0.7207    1.9740   -1.2648 H   0  0  0  0  0  0  0  0  0  0  0  0
   -0.7222   -1.7014   -0.1262 H   0  0  0  0  0  0  0  0  0  0  0  0
    0.7224   -2.2888    0.7100 H   0  0  0  0  0  0  0  0  0  0  0  0
    0.7829   -1.9482   -1.0275 H   0  0  0  0  0  0  0  0  0  0  0  0
    3.1127    1.0015    0.1156 H   0  0  0  0  0  0  0  0  0  0  0  0
    2.9193   -0.4425   -0.8927 H   0  0  0  0  0  0  0  0  0  0  0  0
    3.1133   -0.6037    0.8607 H   0  0  0  0  0  0  0  0  0  0  0  0
  1  2  1  0  0  0  0
  1  3  1  0  0  0  0
  1  4  1  0  0  0  0
  2  5  1  0  0  0  0
  2  6  1  0  0  0  0
  2  7  1  0  0  0  0
  3  8  1  0  0  0  0
  3  9  1  0  0  0  0
  3 10  1  0  0  0  0
  4 11  1  0  0  0  0
  4 12  1  0  0  0  0
  4 13  1  0  0  0  0
M  END
