3,8,13
 OpenBabel03112112493D

 26 28  0  0  0  0  0  0  0  0999 V2000
    1.1583    0.0373   -0.4860 B   0  5  0  0  0  0  0  0  0  0  0  0
    0.3116   -1.1860   -0.0734 N   0  0  0  0  0  0  0  0  0  0  0  0
   -0.3554   -1.9233   -0.9484 N   0  0  0  0  0  0  0  0  0  0  0  0
   -0.9704   -2.9129   -0.2738 C   0  0  0  0  0  0  0  0  0  0  0  0
   -0.6666   -2.8045    1.0681 C   0  0  0  0  0  0  0  0  0  0  0  0
    0.1423   -1.6939    1.1651 C   0  0  0  0  0  0  0  0  0  0  0  0
    0.4960    1.3478   -0.0107 N   0  0  0  0  0  0  0  0  0  0  0  0
    0.1184    1.6115    1.2318 N   0  0  0  0  0  0  0  0  0  0  0  0
   -0.4730    2.8245    1.2323 C   0  0  0  0  0  0  0  0  0  0  0  0
   -0.4539    3.3412   -0.0469 C   0  0  0  0  0  0  0  0  0  0  0  0
    0.1645    2.3785   -0.8113 C   0  0  0  0  0  0  0  0  0  0  0  0
    2.5981   -0.1070    0.0452 N   0  0  0  0  0  0  0  0  0  0  0  0
    3.6295   -0.3446   -0.7496 N   0  0  0  0  0  0  0  0  0  0  0  0
    4.7321   -0.4564    0.0153 C   0  0  0  0  0  0  0  0  0  0  0  0
    4.3867   -0.2660    1.3361 C   0  0  0  0  0  0  0  0  0  0  0  0
    3.0243   -0.0490    1.3267 C   0  0  0  0  0  0  0  0  0  0  0  0
    1.2093    0.0599   -1.6771 H   0  0  0  0  0  0  0  0  0  0  0  0
   -1.5944   -3.6695   -0.7301 H   0  0  0  0  0  0  0  0  0  0  0  0
   -0.9889   -3.4546    1.8692 H   0  0  0  0  0  0  0  0  0  0  0  0
    0.5834   -1.3084    2.0717 H   0  0  0  0  0  0  0  0  0  0  0  0
   -0.9031    3.3027    2.1014 H   0  0  0  0  0  0  0  0  0  0  0  0
   -0.8472    4.2901   -0.3836 H   0  0  0  0  0  0  0  0  0  0  0  0
    0.3544    2.4291   -1.8769 H   0  0  0  0  0  0  0  0  0  0  0  0
    5.7216   -0.6662   -0.3677 H   0  0  0  0  0  0  0  0  0  0  0  0
    5.0446   -0.2889    2.1946 H   0  0  0  0  0  0  0  0  0  0  0  0
    2.4048    0.1441    2.1898 H   0  0  0  0  0  0  0  0  0  0  0  0
  1  2  1  0  0  0  0
  1  7  1  0  0  0  0
  1 12  1  0  0  0  0
  1 17  1  0  0  0  0
  2  3  1  0  0  0  0
  2  6  1  0  0  0  0
  3  4  2  0  0  0  0
  4  5  1  0  0  0  0
  4 18  1  0  0  0  0
  5  6  2  0  0  0  0
  5 19  1  0  0  0  0
  6 20  1  0  0  0  0
  7  8  1  0  0  0  0
  7 11  1  0  0  0  0
  8  9  2  0  0  0  0
  9 10  1  0  0  0  0
  9 21  1  0  0  0  0
 10 11  2  0  0  0  0
 10 22  1  0  0  0  0
 11 23  1  0  0  0  0
 12 13  1  0  0  0  0
 12 16  1  0  0  0  0
 13 14  2  0  0  0  0
 14 15  1  0  0  0  0
 14 24  1  0  0  0  0
 15 16  2  0  0  0  0
 15 25  1  0  0  0  0
 16 26  1  0  0  0  0
M  CHG  1   1  -1
M  END
