7,13,18
 OpenBabel03112112493D

 29 31  0  0  0  0  0  0  0  0999 V2000
   -0.3606    0.9954   -1.1193 C   0  0  0  0  0  0  0  0  0  0  0  0
   -1.0402    1.9221   -0.0865 C   0  0  0  0  0  0  0  0  0  0  0  0
   -1.8093    1.1857    0.8150 C   0  0  0  0  0  0  0  0  0  0  0  0
   -1.0951    0.7078    1.9115 C   0  0  0  0  0  0  0  0  0  0  0  0
    0.0874    1.3457    2.2698 C   0  0  0  0  0  0  0  0  0  0  0  0
    0.4161    2.4993    1.5812 C   0  0  0  0  0  0  0  0  0  0  0  0
   -0.1895    2.8506    0.4239 N   0  0  0  0  0  0  0  0  0  0  0  0
    1.0309    1.0660   -1.2208 C   0  0  0  0  0  0  0  0  0  0  0  0
    1.7518   -0.1122   -1.0791 C   0  0  0  0  0  0  0  0  0  0  0  0
    1.0666   -1.3194   -0.9473 C   0  0  0  0  0  0  0  0  0  0  0  0
   -0.3236   -1.3413   -1.0576 C   0  0  0  0  0  0  0  0  0  0  0  0
   -1.1224   -2.5596   -0.7225 C   0  0  0  0  0  0  0  0  0  0  0  0
   -0.4178   -3.6473   -0.3329 N   0  0  0  0  0  0  0  0  0  0  0  0
   -1.1119   -4.7259    0.0904 C   0  0  0  0  0  0  0  0  0  0  0  0
   -2.4968   -4.7891    0.1576 C   0  0  0  0  0  0  0  0  0  0  0  0
   -3.2183   -3.6858   -0.2449 C   0  0  0  0  0  0  0  0  0  0  0  0
   -2.5234   -2.5421   -0.6833 C   0  0  0  0  0  0  0  0  0  0  0  0
   -1.0180   -0.1938   -1.2654 N   0  0  0  0  0  0  0  0  0  0  0  0
   -2.6597    0.6087    0.4590 H   0  0  0  0  0  0  0  0  0  0  0  0
   -1.3960   -0.2213    2.3871 H   0  0  0  0  0  0  0  0  0  0  0  0
    0.7390    0.9430    3.0347 H   0  0  0  0  0  0  0  0  0  0  0  0
    1.2505    3.1249    1.8770 H   0  0  0  0  0  0  0  0  0  0  0  0
    1.5515    2.0175   -1.1054 H   0  0  0  0  0  0  0  0  0  0  0  0
    2.8241   -0.0784   -0.9165 H   0  0  0  0  0  0  0  0  0  0  0  0
    1.6084   -2.2241   -0.6893 H   0  0  0  0  0  0  0  0  0  0  0  0
   -0.5115   -5.5704    0.4003 H   0  0  0  0  0  0  0  0  0  0  0  0
   -2.9951   -5.6817    0.5114 H   0  0  0  0  0  0  0  0  0  0  0  0
   -4.2980   -3.6730   -0.2019 H   0  0  0  0  0  0  0  0  0  0  0  0
   -3.0793   -1.6558   -0.9766 H   0  0  0  0  0  0  0  0  0  0  0  0
  1  2  1  0  0  0  0
  1  8  2  0  0  0  0
  1 18  1  0  0  0  0
  2  3  2  0  0  0  0
  2  7  1  0  0  0  0
  3  4  1  0  0  0  0
  3 19  1  0  0  0  0
  4  5  2  0  0  0  0
  4 20  1  0  0  0  0
  5  6  1  0  0  0  0
  5 21  1  0  0  0  0
  6  7  2  0  0  0  0
  6 22  1  0  0  0  0
  8  9  1  0  0  0  0
  8 23  1  0  0  0  0
  9 10  2  0  0  0  0
  9 24  1  0  0  0  0
 10 11  1  0  0  0  0
 10 25  1  0  0  0  0
 11 12  1  0  0  0  0
 11 18  2  0  0  0  0
 12 13  2  0  0  0  0
 12 17  1  0  0  0  0
 13 14  1  0  0  0  0
 14 15  2  0  0  0  0
 14 26  1  0  0  0  0
 15 16  1  0  0  0  0
 15 27  1  0  0  0  0
 16 17  2  0  0  0  0
 16 28  1  0  0  0  0
 17 29  1  0  0  0  0
M  END
